@<TRIPOS>MOLECULE
M3
   16    15     1     0     0
SMALL
resp


@<TRIPOS>ATOM
      1 H1          -3.2310    -1.1960    -0.4920 hc         1 M3       -0.017460
      2 C1          -2.2360    -0.7730    -0.6500 c3         1 M3        0.154378
      3 CJ3         -1.6220    -0.2760     0.6580 J3         1 M3       -0.561784
      4 H2          -2.3470     0.0370    -1.3770 hc         1 M3       -0.017460
      5 H3          -1.6160    -1.5470    -1.1090 hc         1 M3       -0.017460
      6 H4          -2.2580     0.4930     1.1110 hc         1 M3        0.126320
      7 SI           0.0910     0.4300     0.4870 SI         1 M3        1.069735
      8 H5          -1.5690    -1.0930     1.3850 hc         1 M3        0.126320
      9 OQH          0.1530     1.7240    -0.5330 QH         1 M3       -0.807519
     10 OQ1          1.0330    -0.8080    -0.0400 QS         1 M3       -0.534212
     11 H6           0.6300     0.9710     1.7610 ha         1 M3       -0.203292
     12 H7          -0.2010     1.6090    -1.4160 ho         1 M3        0.465086
     13 C3           2.4260    -0.7090    -0.2210 c3         1 M3        0.083011
     14 H8           2.8070    -1.6920    -0.5060 h1         1 M3        0.044779
     15 H9           2.9290    -0.3960     0.7010 h1         1 M3        0.044779
     16 H10          2.6780     0.0060    -1.0110 h1         1 M3        0.044779
@<TRIPOS>BOND
     1     1     2 1   
     2     2     3 1   
     3     2     4 1   
     4     2     5 1   
     5     3     6 1   
     6     3     7 1   
     7     3     8 1   
     8     7     9 1   
     9     7    10 1   
    10     7    11 1   
    11     9    12 1   
    12    10    13 1   
    13    13    14 1   
    14    13    15 1   
    15    13    16 1   
@<TRIPOS>SUBSTRUCTURE
     1 M3          1 TEMP              0 ****  ****    0 ROOT
